Ligand1
Actelion Java MolfileCreator 1.0

 33 36  0  0  1  0  0  0  0  0999 V2000
   41.5358   25.7550   11.6845 S   0  0  0  0  0  0  0  0  0  0  0  0
   41.5911   24.7695   12.8164 O   0  0  0  0  0  0  0  0  0  0  0  0
   42.0410   25.0449   10.4606 O   0  0  0  0  0  0  0  0  0  0  0  0
   39.8825   26.2301   11.4069 N   0  0  0  0  0  0  0  0  0  0  0  0
   42.5610   27.1969   11.9717 C   0  0  0  0  0  0  0  0  0  0  0  0
   39.7348   27.0820   10.2138 C   0  0  0  0  0  0  0  0  0  0  0  0
   43.6818   27.5022   11.1458 C   0  0  0  0  0  0  0  0  0  0  0  0
   42.2764   28.0457   13.0781 C   0  0  0  0  0  0  0  0  0  0  0  0
   39.8203   28.5830   10.5710 C   0  0  0  0  0  0  0  0  0  0  0  0
   38.3989   26.7481    9.5473 C   0  0  0  0  0  0  0  0  0  0  0  0
   44.4266   28.6683   11.3882 C   0  0  0  0  0  0  0  0  0  0  0  0
   44.1154   26.6240   10.0007 C   0  0  0  0  0  0  0  0  0  0  0  0
   43.0407   29.2042   13.2860 C   0  0  0  0  0  0  0  0  0  0  0  0
   41.1479   27.7647   14.0394 C   0  0  0  0  0  0  0  0  0  0  0  0
   38.8887   29.3646    9.7545 N   0  0  0  0  0  0  0  0  0  0  0  0
   44.0980   29.5294   12.4361 C   0  0  0  0  0  0  0  0  0  0  0  0
   39.2573   30.2387    8.6679 C   0  0  0  0  0  0  0  0  0  0  0  0
   44.9295   30.7508   12.6992 C   0  0  0  0  0  0  0  0  0  0  0  0
   38.4963   31.3817    8.3864 C   0  0  0  0  0  0  0  0  0  0  0  0
   40.4006   30.0216    7.8579 C   0  0  0  0  0  0  0  0  0  0  0  0
   38.8124   32.2462    7.3721 C   0  0  0  0  0  0  0  0  0  0  0  0
   37.3761   31.9221    8.9895 C   0  0  0  0  0  0  0  0  0  0  0  0
   40.7391   30.9273    6.8291 C   0  0  0  0  0  0  0  0  0  0  0  0
   37.9204   33.2590    7.3606 N   0  0  0  0  0  0  0  0  0  0  0  0
   39.9468   32.0598    6.5804 C   0  0  0  0  0  0  0  0  0  0  0  0
   37.0521   33.0687    8.3479 N   0  0  0  0  0  0  0  0  0  0  0  0
   37.8656   34.3850    6.4702 C   0  0  0  0  0  0  0  0  0  0  0  0
   38.3411   35.6453    6.8713 C   0  0  0  0  0  0  0  0  0  0  0  0
   37.3866   34.2175    5.1611 C   0  0  0  0  0  0  0  0  0  0  0  0
   38.3042   36.7271    5.9861 C   0  0  0  0  0  0  0  0  0  0  0  0
   37.3496   35.3017    4.2787 C   0  0  0  0  0  0  0  0  0  0  0  0
   37.8048   36.5569    4.6918 C   0  0  0  0  0  0  0  0  0  0  0  0
   37.7710   37.6066    3.8345 F   0  0  0  0  0  0  0  0  0  0  0  0
  1  2  2  0  0  0  0
  1  3  2  0  0  0  0
  1  4  1  0  0  0  0
  1  5  1  0  0  0  0
  4  6  1  0  0  0  0
  5  7  2  0  0  0  0
  5  8  1  0  0  0  0
  6  9  1  0  0  0  0
  6 10  1  0  0  0  0
  7 11  1  0  0  0  0
  7 12  1  0  0  0  0
  8 13  2  0  0  0  0
  8 14  1  0  0  0  0
  9 15  1  0  0  0  0
 11 16  2  0  0  0  0
 15 17  1  0  0  0  0
 16 18  1  0  0  0  0
 17 19  2  0  0  0  0
 17 20  1  0  0  0  0
 19 21  1  0  0  0  0
 19 22  1  0  0  0  0
 20 23  2  0  0  0  0
 21 24  1  0  0  0  0
 21 25  2  0  0  0  0
 22 26  2  0  0  0  0
 24 27  1  0  0  0  0
 27 28  2  0  0  0  0
 27 29  1  0  0  0  0
 28 30  1  0  0  0  0
 29 31  2  0  0  0  0
 30 32  2  0  0  0  0
 32 33  1  0  0  0  0
 13 16  1  0  0  0  0
 23 25  1  0  0  0  0
 24 26  1  0  0  0  0
 31 32  1  0  0  0  0
M  END
>  <Molecule Name>
Ligand1

>  <minimizedAffinity>
-10.85546

$$$$
Ligand2
Actelion Java MolfileCreator 1.0

 47 51  0  0  1  0  0  0  0  0999 V2000
   43.3733   30.5109   14.5883 F   0  0  0  0  0  0  0  0  0  0  0  0
   43.3877   29.6620   13.5309 C   0  0  0  0  0  0  0  0  0  0  0  0
   42.5170   28.5724   13.5006 C   0  0  0  0  0  0  0  0  0  0  0  0
   44.2754   29.8776   12.4874 C   0  0  0  0  0  0  0  0  0  0  0  0
   42.4803   27.6725   12.3982 C   0  0  0  0  0  0  0  0  0  0  0  0
   44.3234   28.9852   11.4232 C   0  0  0  0  0  0  0  0  0  0  0  0
   43.4617   27.8689   11.3719 C   0  0  0  0  0  0  0  0  0  0  0  0
   41.4738   26.4679   12.3658 C   0  0  0  0  0  0  0  0  0  0  0  0
   43.5891   26.9358   10.3306 O   0  0  0  0  0  0  0  0  0  0  0  0
   40.0648   26.9174   11.7920 C   0  0  0  0  0  0  0  0  0  0  0  0
   41.3196   25.9752   13.8238 C   0  0  0  0  0  0  0  0  0  0  0  0
   42.0399   25.3389   11.4665 C   0  0  0  0  0  0  0  0  0  0  0  0
   44.8198   26.4295    9.8226 C   0  0  0  0  0  0  0  0  0  0  0  0
   39.8703   27.7740   10.4816 C   0  0  0  0  0  0  0  0  0  0  0  0
   40.7384   27.2848    9.4865 O   0  0  0  0  0  0  0  0  0  0  0  0
   38.3979   27.7891    9.9554 C   0  0  0  0  0  0  0  0  0  0  0  0
   40.2733   29.2510   10.8095 C   0  0  0  0  0  0  0  0  0  0  0  0
   37.7895   26.5635   10.1694 F   0  0  0  0  0  0  0  0  0  0  0  0
   38.3474   28.1012    8.6109 F   0  0  0  0  0  0  0  0  0  0  0  0
   37.6520   28.7582   10.6088 F   0  0  0  0  0  0  0  0  0  0  0  0
   39.3566   30.2377   10.2269 N   0  0  0  0  0  0  0  0  0  0  0  0
   39.5613   30.9366    8.9819 C   0  0  0  0  0  0  0  0  0  0  0  0
   38.7768   32.0497    8.6553 C   0  0  0  0  0  0  0  0  0  0  0  0
   40.5093   30.5188    8.0147 C   0  0  0  0  0  0  0  0  0  0  0  0
   38.9112   32.7209    7.4705 C   0  0  0  0  0  0  0  0  0  0  0  0
   37.7330   32.6753    9.3123 C   0  0  0  0  0  0  0  0  0  0  0  0
   40.6590   31.2168    6.7895 C   0  0  0  0  0  0  0  0  0  0  0  0
   37.9904   33.7055    7.4134 N   0  0  0  0  0  0  0  0  0  0  0  0
   39.8295   32.3190    6.4995 C   0  0  0  0  0  0  0  0  0  0  0  0
   37.2676   33.6756    8.5275 N   0  0  0  0  0  0  0  0  0  0  0  0
   41.6351   30.7289    5.7605 C   0  0  0  0  0  0  0  0  0  0  0  0
   37.7567   34.6351    6.3437 C   0  0  0  0  0  0  0  0  0  0  0  0
   36.9380   34.2699    5.2631 C   0  0  0  0  0  0  0  0  0  0  0  0
   38.3121   35.9205    6.3812 C   0  0  0  0  0  0  0  0  0  0  0  0
   36.6900   35.1650    4.2008 C   0  0  0  0  0  0  0  0  0  0  0  0
   38.0777   36.8145    5.3372 C   0  0  0  0  0  0  0  0  0  0  0  0
   35.8355   34.7154    3.0649 C   0  0  0  0  0  0  0  0  0  0  0  0
   37.2799   36.4416    4.2520 C   0  0  0  0  0  0  0  0  0  0  0  0
   36.2294   33.7415    2.3677 O   0  0  0  0  0  0  0  0  0  0  0  0
   34.5300   35.2681    2.7889 N   0  0  0  0  0  0  0  0  0  0  0  0
   34.2377   36.6516    2.4123 C   0  0  0  0  0  0  0  0  0  0  0  0
   33.3983   34.3885    2.5275 C   0  0  0  0  0  0  0  0  0  0  0  0
   35.3010   37.2404    1.5184 C   0  0  0  0  0  0  0  0  0  0  0  0
   32.8856   36.6029    1.6978 C   0  0  0  0  0  0  0  0  0  0  0  0
   32.2410   35.2984    2.1487 C   0  0  0  0  0  0  0  0  0  0  0  0
   36.3974   37.6248    2.0083 O   0  0  0  0  0  0  0  0  0  0  0  0
   35.0990   37.2994    0.1056 N   0  0  0  0  0  0  0  0  0  0  0  0
  1  2  1  0  0  0  0
  2  3  2  0  0  0  0
  2  4  1  0  0  0  0
  3  5  1  0  0  0  0
  4  6  2  0  0  0  0
  5  7  2  0  0  0  0
  5  8  1  0  0  0  0
  7  9  1  0  0  0  0
  8 10  1  0  0  0  0
  8 11  1  0  0  0  0
  8 12  1  0  0  0  0
  9 13  1  0  0  0  0
 10 14  1  0  0  0  0
 14 15  1  0  0  0  0
 14 16  1  0  0  0  0
 14 17  1  0  0  0  0
 16 18  1  0  0  0  0
 16 19  1  0  0  0  0
 16 20  1  0  0  0  0
 17 21  1  0  0  0  0
 21 22  1  0  0  0  0
 22 23  2  0  0  0  0
 22 24  1  0  0  0  0
 23 25  1  0  0  0  0
 23 26  1  0  0  0  0
 24 27  2  0  0  0  0
 25 28  1  0  0  0  0
 25 29  2  0  0  0  0
 26 30  2  0  0  0  0
 27 31  1  0  0  0  0
 28 32  1  0  0  0  0
 32 33  2  0  0  0  0
 32 34  1  0  0  0  0
 33 35  1  0  0  0  0
 34 36  2  0  0  0  0
 35 37  1  0  0  0  0
 35 38  2  0  0  0  0
 37 39  2  0  0  0  0
 37 40  1  0  0  0  0
 40 41  1  0  0  0  0
 40 42  1  0  0  0  0
 41 43  1  0  0  0  0
 41 44  1  0  0  0  0
 42 45  1  0  0  0  0
 43 46  2  0  0  0  0
 43 47  1  0  0  0  0
  6  7  1  0  0  0  0
 27 29  1  0  0  0  0
 28 30  1  0  0  0  0
 36 38  1  0  0  0  0
 44 45  1  0  0  0  0
M  END
>  <Molecule Name>
Ligand2

>  <minimizedAffinity>
-9.80907

$$$$
Ligand3
Actelion Java MolfileCreator 1.0

 27 29  0  0  0  0  0  0  0  0999 V2000
   41.9680   25.2247   13.3391 S   0  0  0  0  0  0  0  0  0  0  0  0
   40.9394   24.1321   13.2480 O   0  0  0  0  0  0  0  0  0  0  0  0
   42.7571   25.0341   14.6032 O   0  0  0  0  0  0  0  0  0  0  0  0
   41.1881   26.7748   13.3926 N   0  0  0  0  0  0  0  0  0  0  0  0
   43.0773   25.1461   11.9493 C   0  0  0  0  0  0  0  0  0  0  0  0
   41.5685   27.8972   12.5739 C   0  0  0  0  0  0  0  0  0  0  0  0
   40.8058   28.2608   11.4566 C   0  0  0  0  0  0  0  0  0  0  0  0
   42.7001   28.6929   12.8734 C   0  0  0  0  0  0  0  0  0  0  0  0
   39.6889   27.6672   10.9876 N   0  0  0  0  0  0  0  0  0  0  0  0
   41.1448   29.3345   10.6758 C   0  0  0  0  0  0  0  0  0  0  0  0
   43.0572   29.8224   12.0754 C   0  0  0  0  0  0  0  0  0  0  0  0
   39.3192   28.3730    9.8943 C   0  0  0  0  0  0  0  0  0  0  0  0
   40.2046   29.4232    9.6677 C   0  0  0  0  0  0  0  0  0  0  0  0
   42.2411   30.1404   10.9615 C   0  0  0  0  0  0  0  0  0  0  0  0
   44.2838   30.7063   12.3836 C   0  0  0  0  0  0  0  0  0  0  0  0
   38.0981   28.0683    9.0862 C   0  0  0  0  0  0  0  0  0  0  0  0
   40.1379   30.4319    8.5914 C   0  0  0  0  0  0  0  0  0  0  0  0
   44.2586   32.0654   11.6431 C   0  0  0  0  0  0  0  0  0  0  0  0
   45.5704   29.9651   11.9601 C   0  0  0  0  0  0  0  0  0  0  0  0
   44.3370   31.0009   13.8992 C   0  0  0  0  0  0  0  0  0  0  0  0
   39.2977   31.5664    8.6800 C   0  0  0  0  0  0  0  0  0  0  0  0
   40.9379   30.2572    7.4545 C   0  0  0  0  0  0  0  0  0  0  0  0
   39.2543   32.4560    7.5948 C   0  0  0  0  0  0  0  0  0  0  0  0
   38.4378   31.8383    9.8869 C   0  0  0  0  0  0  0  0  0  0  0  0
   40.8714   31.1832    6.4135 C   0  0  0  0  0  0  0  0  0  0  0  0
   40.0351   32.2488    6.5025 N   0  0  0  0  0  0  0  0  0  0  0  0
   41.6347   31.0161    5.3064 F   0  0  0  0  0  0  0  0  0  0  0  0
  1  2  2  0  0  0  0
  1  3  2  0  0  0  0
  1  4  1  0  0  0  0
  1  5  1  0  0  0  0
  4  6  1  0  0  0  0
  6  7  2  0  0  0  0
  6  8  1  0  0  0  0
  7  9  1  0  0  0  0
  7 10  1  0  0  0  0
  8 11  2  0  0  0  0
  9 12  1  0  0  0  0
 10 13  1  0  0  0  0
 10 14  2  0  0  0  0
 11 15  1  0  0  0  0
 12 16  1  0  0  0  0
 13 17  1  0  0  0  0
 15 18  1  0  0  0  0
 15 19  1  0  0  0  0
 15 20  1  0  0  0  0
 17 21  2  0  0  0  0
 17 22  1  0  0  0  0
 21 23  1  0  0  0  0
 21 24  1  0  0  0  0
 22 25  2  0  0  0  0
 23 26  2  0  0  0  0
 25 27  1  0  0  0  0
 11 14  1  0  0  0  0
 12 13  2  0  0  0  0
 25 26  1  0  0  0  0
M  END
>  <Molecule Name>
Ligand3

>  <minimizedAffinity>
-8.08154

$$$$
Ligand4
Actelion Java MolfileCreator 1.0

 32 36  0  0  1  0  0  0  0  0999 V2000
   36.8633   35.8272    6.5436 O   0  0  0  0  0  0  0  0  0  0  0  0
   37.2643   34.7273    7.0081 C   0  0  0  0  0  0  0  0  0  0  0  0
   37.7123   34.6380    8.4014 C   0  0  0  0  0  0  0  0  0  0  0  0
   37.1967   33.4888    6.1755 C   0  0  0  0  0  0  0  0  0  0  0  0
   38.2530   33.5101    8.8898 C   0  0  0  0  0  0  0  0  0  0  0  0
   38.3747   32.5640    6.4894 C   0  0  0  0  0  0  0  0  0  0  0  0
   38.5579   32.3444    7.9922 C   0  0  0  0  0  0  0  0  0  0  0  0
   38.6109   33.4607   10.3481 C   0  0  0  0  0  0  0  0  0  0  0  0
   39.1143   31.1990    8.5066 C   0  0  0  0  0  0  0  0  0  0  0  0
   38.5597   32.0262   10.8476 C   0  0  0  0  0  0  0  0  0  0  0  0
   39.4975   30.0184    7.5796 C   0  0  0  0  0  0  0  0  0  0  0  0
   39.4918   31.1445    9.9999 C   0  0  0  0  0  0  0  0  0  0  0  0
   40.6451   30.3368    6.6225 C   0  0  0  0  0  0  0  0  0  0  0  0
   39.7073   28.6394    8.2852 C   0  0  0  0  0  0  0  0  0  0  0  0
   39.4552   29.6938   10.5169 C   0  0  0  0  0  0  0  0  0  0  0  0
   41.6186   29.3874    6.2564 C   0  0  0  0  0  0  0  0  0  0  0  0
   40.7480   31.6348    6.0964 C   0  0  0  0  0  0  0  0  0  0  0  0
   40.3248   28.7365    9.6987 C   0  0  0  0  0  0  0  0  0  0  0  0
   39.8712   29.4515   11.9675 C   0  0  0  0  0  0  0  0  0  0  0  0
   42.6535   29.7262    5.3816 C   0  0  0  0  0  0  0  0  0  0  0  0
   41.7823   31.9752    5.2217 C   0  0  0  0  0  0  0  0  0  0  0  0
   40.2571   27.4374   10.5717 C   0  0  0  0  0  0  0  0  0  0  0  0
   41.8146   29.1917    9.5902 C   0  0  0  0  0  0  0  0  0  0  0  0
   40.3013   27.9757   12.0229 C   0  0  0  0  0  0  0  0  0  0  0  0
   42.7530   31.0257    4.8471 C   0  0  0  0  0  0  0  0  0  0  0  0
   41.3499   26.5784   10.3476 O   0  0  0  0  0  0  0  0  0  0  0  0
   38.9996   26.6699   10.3882 C   0  0  0  0  0  0  0  0  0  0  0  0
   43.8284   31.3775    3.9373 N   0  0  0  0  0  0  0  0  0  0  0  0
   37.9789   26.0453   10.2410 C   0  0  0  0  0  0  0  0  0  0  0  0
   44.0733   32.7798    3.5780 C   0  0  0  0  0  0  0  0  0  0  0  0
   44.6897   30.3371    3.3616 C   0  0  0  0  0  0  0  0  0  0  0  0
   36.7397   25.2888   10.0667 C   0  0  0  0  0  0  0  0  0  0  0  0
  1  2  2  0  0  0  0
  2  3  1  0  0  0  0
  2  4  1  0  0  0  0
  3  5  2  0  0  0  0
  4  6  1  0  0  0  0
  5  7  1  0  0  0  0
  5  8  1  0  0  0  0
  7  9  2  0  0  0  0
  8 10  1  0  0  0  0
  9 11  1  0  0  0  0
  9 12  1  0  0  0  0
 11 13  1  0  0  0  0
 11 14  1  0  0  0  0
 12 15  1  0  0  0  0
 13 16  2  0  0  0  0
 13 17  1  0  0  0  0
 14 18  1  0  0  0  0
 15 19  1  0  0  0  0
 16 20  1  0  0  0  0
 17 21  2  0  0  0  0
 18 22  1  0  0  0  0
 18 23  1  0  0  0  0
 19 24  1  0  0  0  0
 20 25  2  0  0  0  0
 22 26  1  0  0  0  0
 22 27  1  0  0  0  0
 25 28  1  0  0  0  0
 27 29  3  0  0  0  0
 28 30  1  0  0  0  0
 28 31  1  0  0  0  0
 29 32  1  0  0  0  0
  6  7  1  0  0  0  0
 10 12  1  0  0  0  0
 15 18  1  0  0  0  0
 21 25  1  0  0  0  0
 22 24  1  0  0  0  0
M  END
>  <Molecule Name>
Ligand4

>  <minimizedAffinity>
0.14810

$$$$
Ligand5
Actelion Java MolfileCreator 1.0

 37 41  0  0  1  0  0  0  0  0999 V2000
   41.0159   25.4349   13.0836 S   0  0  0  0  0  0  0  0  0  0  0  0
   42.5405   25.6660   12.1392 C   0  0  0  0  0  0  0  0  0  0  0  0
   41.8253   25.3019   14.7083 C   0  0  0  0  0  0  0  0  0  0  0  0
   43.4503   24.8728   12.3242 O   0  0  0  0  0  0  0  0  0  0  0  0
   42.6817   26.7161   11.0310 C   0  0  0  0  0  0  0  0  0  0  0  0
   41.1905   26.1214   15.6232 F   0  0  0  0  0  0  0  0  0  0  0  0
   43.4709   27.8248   11.5108 O   0  0  0  0  0  0  0  0  0  0  0  0
   41.2971   27.2934   10.5663 C   0  0  0  0  0  0  0  0  0  0  0  0
   43.2727   26.1676    9.6779 C   0  0  0  0  0  0  0  0  0  0  0  0
   43.2395   28.6264   12.6402 C   0  0  0  0  0  0  0  0  0  0  0  0
   41.7074   27.9823    9.2571 C   0  0  0  0  0  0  0  0  0  0  0  0
   40.6812   28.3773   11.4981 C   0  0  0  0  0  0  0  0  0  0  0  0
   40.2678   26.1324   10.3440 C   0  0  0  0  0  0  0  0  0  0  0  0
   42.5812   26.9604    8.5391 C   0  0  0  0  0  0  0  0  0  0  0  0
   44.8018   26.2337    9.5555 C   0  0  0  0  0  0  0  0  0  0  0  0
   42.5261   28.2256   13.5981 O   0  0  0  0  0  0  0  0  0  0  0  0
   43.8492   29.9567   12.7023 C   0  0  0  0  0  0  0  0  0  0  0  0
   40.5210   28.6222    8.4972 C   0  0  0  0  0  0  0  0  0  0  0  0
   39.5059   29.1571   10.8376 C   0  0  0  0  0  0  0  0  0  0  0  0
   44.4146   30.4608   13.7749 O   0  0  0  0  0  0  0  0  0  0  0  0
   43.9222   30.8578   11.6593 C   0  0  0  0  0  0  0  0  0  0  0  0
   39.8660   29.7240    9.4136 C   0  0  0  0  0  0  0  0  0  0  0  0
   41.0091   29.2362    7.1661 C   0  0  0  0  0  0  0  0  0  0  0  0
   38.3539   28.3573   10.8015 O   0  0  0  0  0  0  0  0  0  0  0  0
   44.8607   31.6621   13.4861 C   0  0  0  0  0  0  0  0  0  0  0  0
   44.5763   31.9595   12.1682 C   0  0  0  0  0  0  0  0  0  0  0  0
   40.8385   30.6943    9.6409 F   0  0  0  0  0  0  0  0  0  0  0  0
   38.6794   30.4723    8.6742 C   0  0  0  0  0  0  0  0  0  0  0  0
   39.8781   29.9384    6.4158 C   0  0  0  0  0  0  0  0  0  0  0  0
   39.2215   30.9631    7.3178 C   0  0  0  0  0  0  0  0  0  0  0  0
   38.1779   31.6201    9.5536 C   0  0  0  0  0  0  0  0  0  0  0  0
   37.4468   29.5783    8.3813 C   0  0  0  0  0  0  0  0  0  0  0  0
   40.3997   30.5095    5.2642 F   0  0  0  0  0  0  0  0  0  0  0  0
   39.0965   32.2414    6.9161 C   0  0  0  0  0  0  0  0  0  0  0  0
   38.0744   32.8806    9.1343 C   0  0  0  0  0  0  0  0  0  0  0  0
   38.5034   33.2519    7.7901 C   0  0  0  0  0  0  0  0  0  0  0  0
   38.3732   34.4385    7.3895 O   0  0  0  0  0  0  0  0  0  0  0  0
  1  2  1  0  0  0  0
  1  3  1  0  0  0  0
  2  4  2  0  0  0  0
  2  5  1  0  0  0  0
  3  6  1  0  0  0  0
  5  7  1  0  0  0  0
  5  8  1  0  0  0  0
  5  9  1  0  0  0  0
  7 10  1  0  0  0  0
  8 11  1  0  0  0  0
  8 12  1  0  0  0  0
  8 13  1  0  0  0  0
  9 14  1  0  0  0  0
  9 15  1  0  0  0  0
 10 16  2  0  0  0  0
 10 17  1  0  0  0  0
 11 18  1  0  0  0  0
 12 19  1  0  0  0  0
 17 20  1  0  0  0  0
 17 21  2  0  0  0  0
 18 22  1  0  0  0  0
 18 23  1  0  0  0  0
 19 24  1  0  0  0  0
 20 25  1  0  0  0  0
 21 26  1  0  0  0  0
 22 27  1  0  0  0  0
 22 28  1  0  0  0  0
 23 29  1  0  0  0  0
 28 30  1  0  0  0  0
 28 31  1  0  0  0  0
 28 32  1  0  0  0  0
 29 33  1  0  0  0  0
 30 34  2  0  0  0  0
 31 35  2  0  0  0  0
 34 36  1  0  0  0  0
 36 37  2  0  0  0  0
 11 14  1  0  0  0  0
 19 22  1  0  0  0  0
 25 26  2  0  0  0  0
 29 30  1  0  0  0  0
 35 36  1  0  0  0  0
M  END
>  <Molecule Name>
Ligand5

>  <minimizedAffinity>
-9.94008

$$$$
